  Page 1                                    Thu Apr 06 12:29:14 2017

  ******************************************************************
  *                           E P A N E T                          *
  *                   Hydraulic and Water Quality                  *
  *                   Analysis for Pipe Networks                   *
  *                         Version 2.00.12                        *
  ******************************************************************
  
  Analysis begun Thu Apr 06 12:29:14 2017

  Processing MSX input file two_story_house_example.msx
  
  
Page 1                                               EPANET-MSX 1.1
  
  ******************************************************************
  *                      E P A N E T  -  M S X                     *
  *                   Multi-Species Water Quality                  *
  *                   Analysis for Pipe  Networks                  *
  *                           Version 1.1                          *
  ******************************************************************
  
  Two-story house's Water quality modeling example

  
  <<< Node 1 >>>
  
  Time            CL2           S          Xb
  hr:min         MG/L        MG/L        UG/L
  -------  ----------  ----------  ----------
     0:00        0.00        0.00        0.00
     1:00        2.99        2.40        0.30
     2:00        2.99        2.40        0.30
     3:00        2.99        2.40        0.30
     4:00        2.99        2.40        0.30
     5:00        2.99        2.40        0.30
     6:00        2.99        2.40        0.30
     7:00        2.99        2.40        0.30
     8:00        2.99        2.40        0.30
     9:00        2.99        2.40        0.30
    10:00        2.99        2.40        0.30
    11:00        2.99        2.40        0.30
    12:00        2.99        2.40        0.30
    13:00        2.99        2.40        0.30
    14:00        2.99        2.40        0.30
    15:00        2.99        2.40        0.30
    16:00        2.99        2.40        0.30
    17:00        2.99        2.40        0.30
    18:00        2.99        2.40        0.30
    19:00        2.99        2.40        0.30
    20:00        2.99        2.40        0.30
    21:00        2.99        2.40        0.30
    22:00        2.99        2.40        0.30
    23:00        2.99        2.40        0.30
    24:00        2.99        2.40        0.30
    25:00        2.99        2.40        0.30
    26:00        2.99        2.40        0.30
    27:00        2.99        2.40        0.30
    28:00        2.99        2.40        0.30
    29:00        2.99        2.40        0.30
    30:00        2.99        2.40        0.30
    31:00        2.99        2.40        0.30
    32:00        2.99        2.40        0.30
    33:00        2.99        2.40        0.30
    34:00        2.99        2.40        0.30
    35:00        2.99        2.40        0.30
    36:00        2.99        2.40        0.30
    37:00        2.99        2.40        0.30
    38:00        2.99        2.40        0.30
    39:00        2.99        2.40        0.30
    40:00        2.99        2.40        0.30
    41:00        2.99        2.40        0.30
    42:00        2.99        2.40        0.30
    43:00        2.99        2.40        0.30
    44:00        2.99        2.40        0.30
    45:00        2.99        2.40        0.30
    46:00        2.99        2.40        0.30
    47:00        2.99        2.40        0.30
    48:00        2.99        2.40        0.30
  
  <<< Node 2 >>>
  
  Time            CL2           S          Xb
  hr:min         MG/L        MG/L        UG/L
  -------  ----------  ----------  ----------
     0:00        0.00        0.00        0.00
     1:00        2.98        2.40        0.29
     2:00        2.98        2.40        0.29
     3:00        2.98        2.40        0.29
     4:00        2.98        2.40        0.29
     5:00        2.98        2.40        0.29
     6:00        2.98        2.40        0.29
     7:00        2.98        2.40        0.29
     8:00        2.98        2.40        0.29
     9:00        2.98        2.40        0.29
    10:00        2.98        2.40        0.29
    11:00        2.98        2.40        0.29
    12:00        2.98        2.40        0.29
    13:00        2.98        2.40        0.29
    14:00        2.98        2.40        0.29
    15:00        2.98        2.40        0.29
    16:00        2.98        2.40        0.29
    17:00        2.98        2.40        0.29
    18:00        2.98        2.40        0.29
    19:00        2.98        2.40        0.29
    20:00        2.98        2.40        0.29
    21:00        2.98        2.40        0.29
    22:00        2.98        2.40        0.29
    23:00        2.98        2.40        0.29
    24:00        2.98        2.40        0.29
    25:00        2.98        2.40        0.29
    26:00        2.98        2.40        0.29
    27:00        2.98        2.40        0.29
    28:00        2.98        2.40        0.29
    29:00        2.98        2.40        0.29
    30:00        2.98        2.40        0.29
    31:00        2.98        2.40        0.29
    32:00        2.98        2.40        0.29
    33:00        2.98        2.40        0.29
    34:00        2.98        2.40        0.29
    35:00        2.98        2.40        0.29
    36:00        2.98        2.40        0.29
    37:00        2.98        2.40        0.29
    38:00        2.98        2.40        0.29
    39:00        2.98        2.40        0.29
    40:00        2.98        2.40        0.29
    41:00        2.98        2.40        0.29
    42:00        2.98        2.40        0.29
    43:00        2.98        2.40        0.29
    44:00        2.98        2.40        0.29
    45:00        2.98        2.40        0.29
    46:00        2.98        2.40        0.29
    47:00        2.98        2.40        0.29
    48:00        2.98        2.40        0.29
  
  <<< Node 9 >>>
  
  Time            CL2           S          Xb
  hr:min         MG/L        MG/L        UG/L
  -------  ----------  ----------  ----------
     0:00        0.00        0.00        0.00
     1:00        2.98        2.40        0.29
     2:00        2.98        2.40        0.29
     3:00        2.98        2.40        0.29
     4:00        2.98        2.40        0.29
     5:00        2.98        2.40        0.29
     6:00        2.98        2.40        0.29
     7:00        2.98        2.40        0.29
     8:00        2.98        2.40        0.29
     9:00        2.98        2.40        0.29
    10:00        2.98        2.40        0.29
    11:00        2.98        2.40        0.29
    12:00        2.98        2.40        0.29
    13:00        2.98        2.40        0.29
    14:00        2.98        2.40        0.29
    15:00        2.98        2.40        0.29
    16:00        2.98        2.40        0.29
    17:00        2.98        2.40        0.29
    18:00        2.98        2.40        0.29
    19:00        2.98        2.40        0.29
    20:00        2.98        2.40        0.29
    21:00        2.98        2.40        0.29
    22:00        2.98        2.40        0.29
    23:00        2.98        2.40        0.29
    24:00        2.98        2.40        0.29
    25:00        2.98        2.40        0.29
    26:00        2.98        2.40        0.29
    27:00        2.98        2.40        0.29
    28:00        2.98        2.40        0.29
    29:00        2.98        2.40        0.29
    30:00        2.98        2.40        0.29
    31:00        2.98        2.40        0.29
    32:00        2.98        2.40        0.29
    33:00        2.98        2.40        0.29
    34:00        2.98        2.40        0.29
    35:00        2.98        2.40        0.29
    36:00        2.98        2.40        0.29
    37:00        2.98        2.40        0.29
    38:00        2.98        2.40        0.29
    39:00        2.98        2.40        0.29
    40:00        2.98        2.40        0.29
    41:00        2.98        2.40        0.29
    42:00        2.98        2.40        0.29
    43:00        2.98        2.40        0.29
    44:00        2.98        2.40        0.29
    45:00        2.98        2.40        0.29
    46:00        2.98        2.40        0.29
    47:00        2.98        2.40        0.29
    48:00        2.98        2.40        0.29
  
  <<< Node 3 >>>
  
  Time            CL2           S          Xb
  hr:min         MG/L        MG/L        UG/L
  -------  ----------  ----------  ----------
     0:00        0.00        0.00        0.00
     1:00        2.96        2.40        0.29
     2:00        2.96        2.40        0.29
     3:00        2.96        2.40        0.29
     4:00        2.96        2.40        0.29
     5:00        2.96        2.40        0.29
     6:00        2.96        2.40        0.29
     7:00        2.96        2.40        0.29
     8:00        2.96        2.40        0.29
     9:00        2.96        2.40        0.29
    10:00        2.96        2.40        0.29
    11:00        2.96        2.40        0.29
    12:00        2.96        2.40        0.29
    13:00        2.96        2.40        0.29
    14:00        2.96        2.40        0.29
    15:00        2.96        2.40        0.29
    16:00        2.96        2.40        0.29
    17:00        2.96        2.40        0.29
    18:00        2.96        2.40        0.29
    19:00        2.96        2.40        0.29
    20:00        2.96        2.40        0.29
    21:00        2.96        2.40        0.29
    22:00        2.96        2.40        0.29
    23:00        2.96        2.40        0.29
    24:00        2.96        2.40        0.29
    25:00        2.96        2.40        0.29
    26:00        2.96        2.40        0.29
    27:00        2.96        2.40        0.29
    28:00        2.96        2.40        0.29
    29:00        2.96        2.40        0.29
    30:00        2.96        2.40        0.29
    31:00        2.96        2.40        0.29
    32:00        2.96        2.40        0.29
    33:00        2.96        2.40        0.29
    34:00        2.96        2.40        0.29
    35:00        2.96        2.40        0.29
    36:00        2.96        2.40        0.29
    37:00        2.96        2.40        0.29
    38:00        2.96        2.40        0.29
    39:00        2.96        2.40        0.29
    40:00        2.96        2.40        0.29
    41:00        2.96        2.40        0.29
    42:00        2.96        2.40        0.29
    43:00        2.96        2.40        0.29
    44:00        2.96        2.40        0.29
    45:00        2.96        2.40        0.29
    46:00        2.96        2.40        0.29
    47:00        2.96        2.40        0.29
    48:00        2.96        2.40        0.29
  
  <<< Node 10 >>>
  
  Time            CL2           S          Xb
  hr:min         MG/L        MG/L        UG/L
  -------  ----------  ----------  ----------
     0:00        0.00        0.00        0.00
     1:00        2.96        2.40        0.29
     2:00        2.96        2.40        0.29
     3:00        2.96        2.40        0.29
     4:00        2.96        2.40        0.29
     5:00        2.96        2.40        0.29
     6:00        2.96        2.40        0.29
     7:00        2.96        2.40        0.29
     8:00        2.96        2.40        0.29
     9:00        2.96        2.40        0.29
    10:00        2.96        2.40        0.29
    11:00        2.96        2.40        0.29
    12:00        2.96        2.40        0.29
    13:00        2.96        2.40        0.29
    14:00        2.96        2.40        0.29
    15:00        2.96        2.40        0.29
    16:00        2.96        2.40        0.29
    17:00        2.96        2.40        0.29
    18:00        2.96        2.40        0.29
    19:00        2.96        2.40        0.29
    20:00        2.96        2.40        0.29
    21:00        2.96        2.40        0.29
    22:00        2.96        2.40        0.29
    23:00        2.96        2.40        0.29
    24:00        2.96        2.40        0.29
    25:00        2.96        2.40        0.29
    26:00        2.96        2.40        0.29
    27:00        2.96        2.40        0.29
    28:00        2.96        2.40        0.29
    29:00        2.96        2.40        0.29
    30:00        2.96        2.40        0.29
    31:00        2.96        2.40        0.29
    32:00        2.96        2.40        0.29
    33:00        2.96        2.40        0.29
    34:00        2.96        2.40        0.29
    35:00        2.96        2.40        0.29
    36:00        2.96        2.40        0.29
    37:00        2.96        2.40        0.29
    38:00        2.96        2.40        0.29
    39:00        2.96        2.40        0.29
    40:00        2.96        2.40        0.29
    41:00        2.96        2.40        0.29
    42:00        2.96        2.40        0.29
    43:00        2.96        2.40        0.29
    44:00        2.96        2.40        0.29
    45:00        2.96        2.40        0.29
    46:00        2.96        2.40        0.29
    47:00        2.96        2.40        0.29
    48:00        2.96        2.40        0.29
  
  <<< Node 4 >>>
  
  Time            CL2           S          Xb
  hr:min         MG/L        MG/L        UG/L
  -------  ----------  ----------  ----------
     0:00        0.00        0.00        0.00
     1:00        2.95        2.40        0.29
     2:00        2.95        2.40        0.29
     3:00        2.95        2.40        0.29
     4:00        2.95        2.40        0.29
     5:00        2.95        2.40        0.29
     6:00        2.95        2.40        0.29
     7:00        2.95        2.40        0.29
     8:00        2.95        2.40        0.29
     9:00        2.95        2.40        0.29
    10:00        2.95        2.40        0.29
    11:00        2.95        2.40        0.29
    12:00        2.95        2.40        0.29
    13:00        2.95        2.40        0.29
    14:00        2.95        2.40        0.29
    15:00        2.95        2.40        0.29
    16:00        2.95        2.40        0.29
    17:00        2.95        2.40        0.29
    18:00        2.95        2.40        0.29
    19:00        2.95        2.40        0.29
    20:00        2.95        2.40        0.29
    21:00        2.95        2.40        0.29
    22:00        2.95        2.40        0.29
    23:00        2.95        2.40        0.29
    24:00        2.95        2.40        0.29
    25:00        2.95        2.40        0.29
    26:00        2.95        2.40        0.29
    27:00        2.95        2.40        0.29
    28:00        2.95        2.40        0.29
    29:00        2.95        2.40        0.29
    30:00        2.95        2.40        0.29
    31:00        2.95        2.40        0.29
    32:00        2.95        2.40        0.29
    33:00        2.95        2.40        0.29
    34:00        2.95        2.40        0.29
    35:00        2.95        2.40        0.29
    36:00        2.95        2.40        0.29
    37:00        2.95        2.40        0.29
    38:00        2.95        2.40        0.29
    39:00        2.95        2.40        0.29
    40:00        2.95        2.40        0.29
    41:00        2.95        2.40        0.29
    42:00        2.95        2.40        0.29
    43:00        2.95        2.40        0.29
    44:00        2.95        2.40        0.29
    45:00        2.95        2.40        0.29
    46:00        2.95        2.40        0.29
    47:00        2.95        2.40        0.29
    48:00        2.95        2.40        0.29
  
  <<< Node 6 >>>
  
  Time            CL2           S          Xb
  hr:min         MG/L        MG/L        UG/L
  -------  ----------  ----------  ----------
     0:00        0.00        0.00        0.00
     1:00        2.95        2.40        0.29
     2:00        2.95        2.40        0.29
     3:00        2.95        2.40        0.29
     4:00        2.95        2.40        0.29
     5:00        2.95        2.40        0.29
     6:00        2.95        2.40        0.29
     7:00        2.95        2.40        0.29
     8:00        2.95        2.40        0.29
     9:00        2.95        2.40        0.29
    10:00        2.95        2.40        0.29
    11:00        2.95        2.40        0.29
    12:00        2.95        2.40        0.29
    13:00        2.95        2.40        0.29
    14:00        2.95        2.40        0.29
    15:00        2.95        2.40        0.29
    16:00        2.95        2.40        0.29
    17:00        2.95        2.40        0.29
    18:00        2.95        2.40        0.29
    19:00        2.95        2.40        0.29
    20:00        2.95        2.40        0.29
    21:00        2.95        2.40        0.29
    22:00        2.95        2.40        0.29
    23:00        2.95        2.40        0.29
    24:00        2.95        2.40        0.29
    25:00        2.95        2.40        0.29
    26:00        2.95        2.40        0.29
    27:00        2.95        2.40        0.29
    28:00        2.95        2.40        0.29
    29:00        2.95        2.40        0.29
    30:00        2.95        2.40        0.29
    31:00        2.95        2.40        0.29
    32:00        2.95        2.40        0.29
    33:00        2.95        2.40        0.29
    34:00        2.95        2.40        0.29
    35:00        2.95        2.40        0.29
    36:00        2.95        2.40        0.29
    37:00        2.95        2.40        0.29
    38:00        2.95        2.40        0.29
    39:00        2.95        2.40        0.29
    40:00        2.95        2.40        0.29
    41:00        2.95        2.40        0.29
    42:00        2.95        2.40        0.29
    43:00        2.95        2.40        0.29
    44:00        2.95        2.40        0.29
    45:00        2.95        2.40        0.29
    46:00        2.95        2.40        0.29
    47:00        2.95        2.40        0.29
    48:00        2.95        2.40        0.29
  
  <<< Node 5 >>>
  
  Time            CL2           S          Xb
  hr:min         MG/L        MG/L        UG/L
  -------  ----------  ----------  ----------
     0:00        0.00        0.00        0.00
     1:00        2.94        2.40        0.28
     2:00        2.94        2.40        0.28
     3:00        2.94        2.40        0.28
     4:00        2.94        2.40        0.28
     5:00        2.94        2.40        0.28
     6:00        2.94        2.40        0.28
     7:00        2.94        2.40        0.29
     8:00        2.94        2.40        0.29
     9:00        2.94        2.40        0.29
    10:00        2.94        2.40        0.29
    11:00        2.94        2.40        0.29
    12:00        2.94        2.40        0.29
    13:00        2.94        2.40        0.29
    14:00        2.94        2.40        0.29
    15:00        2.94        2.40        0.29
    16:00        2.94        2.40        0.29
    17:00        2.94        2.40        0.29
    18:00        2.94        2.40        0.29
    19:00        2.94        2.40        0.29
    20:00        2.94        2.40        0.29
    21:00        2.94        2.40        0.29
    22:00        2.94        2.40        0.29
    23:00        2.94        2.40        0.29
    24:00        2.94        2.40        0.29
    25:00        2.94        2.40        0.29
    26:00        2.94        2.40        0.29
    27:00        2.94        2.40        0.29
    28:00        2.94        2.40        0.29
    29:00        2.94        2.40        0.29
    30:00        2.94        2.40        0.29
    31:00        2.94        2.40        0.29
    32:00        2.94        2.40        0.29
    33:00        2.94        2.40        0.29
    34:00        2.94        2.40        0.29
    35:00        2.94        2.40        0.29
    36:00        2.94        2.40        0.29
    37:00        2.94        2.40        0.29
    38:00        2.94        2.40        0.29
    39:00        2.94        2.40        0.29
    40:00        2.94        2.40        0.29
    41:00        2.94        2.40        0.29
    42:00        2.94        2.40        0.29
    43:00        2.94        2.40        0.29
    44:00        2.94        2.40        0.29
    45:00        2.94        2.40        0.29
    46:00        2.94        2.40        0.29
    47:00        2.94        2.40        0.29
    48:00        2.94        2.40        0.29
  
  <<< Node 7 >>>
  
  Time            CL2           S          Xb
  hr:min         MG/L        MG/L        UG/L
  -------  ----------  ----------  ----------
     0:00        0.00        0.00        0.00
     1:00        2.94        2.40        0.28
     2:00        2.94        2.40        0.28
     3:00        2.94        2.40        0.28
     4:00        2.94        2.40        0.28
     5:00        2.94        2.40        0.28
     6:00        2.94        2.40        0.29
     7:00        2.94        2.40        0.29
     8:00        2.94        2.40        0.29
     9:00        2.94        2.40        0.29
    10:00        2.94        2.40        0.29
    11:00        2.94        2.40        0.29
    12:00        2.94        2.40        0.29
    13:00        2.94        2.40        0.29
    14:00        2.94        2.40        0.29
    15:00        2.94        2.40        0.29
    16:00        2.94        2.40        0.29
    17:00        2.94        2.40        0.29
    18:00        2.94        2.40        0.29
    19:00        2.94        2.40        0.29
    20:00        2.94        2.40        0.29
    21:00        2.94        2.40        0.29
    22:00        2.94        2.40        0.29
    23:00        2.94        2.40        0.29
    24:00        2.94        2.40        0.29
    25:00        2.94        2.40        0.29
    26:00        2.94        2.40        0.29
    27:00        2.94        2.40        0.29
    28:00        2.94        2.40        0.29
    29:00        2.94        2.40        0.29
    30:00        2.94        2.40        0.29
    31:00        2.94        2.40        0.29
    32:00        2.94        2.40        0.29
    33:00        2.94        2.40        0.29
    34:00        2.94        2.40        0.29
    35:00        2.94        2.40        0.29
    36:00        2.94        2.40        0.29
    37:00        2.94        2.40        0.29
    38:00        2.94        2.40        0.29
    39:00        2.94        2.40        0.29
    40:00        2.94        2.40        0.29
    41:00        2.94        2.40        0.29
    42:00        2.94        2.40        0.29
    43:00        2.94        2.40        0.29
    44:00        2.94        2.40        0.29
    45:00        2.94        2.40        0.29
    46:00        2.94        2.40        0.29
    47:00        2.94        2.40        0.29
    48:00        2.94        2.40        0.29
  
  <<< Node 8 >>>
  
  Time            CL2           S          Xb
  hr:min         MG/L        MG/L        UG/L
  -------  ----------  ----------  ----------
     0:00        0.00        0.00        0.00
     1:00        2.94        2.40        0.28
     2:00        2.94        2.40        0.28
     3:00        2.94        2.40        0.28
     4:00        2.94        2.40        0.28
     5:00        2.94        2.40        0.28
     6:00        2.94        2.40        0.28
     7:00        2.94        2.40        0.29
     8:00        2.94        2.40        0.29
     9:00        2.94        2.40        0.29
    10:00        2.94        2.40        0.29
    11:00        2.94        2.40        0.29
    12:00        2.94        2.40        0.29
    13:00        2.94        2.40        0.29
    14:00        2.94        2.40        0.29
    15:00        2.94        2.40        0.29
    16:00        2.94        2.40        0.29
    17:00        2.94        2.40        0.29
    18:00        2.94        2.40        0.29
    19:00        2.94        2.40        0.29
    20:00        2.94        2.40        0.29
    21:00        2.94        2.40        0.29
    22:00        2.94        2.40        0.29
    23:00        2.94        2.40        0.29
    24:00        2.94        2.40        0.29
    25:00        2.94        2.40        0.29
    26:00        2.94        2.40        0.29
    27:00        2.94        2.40        0.29
    28:00        2.94        2.40        0.29
    29:00        2.94        2.40        0.29
    30:00        2.94        2.40        0.29
    31:00        2.94        2.40        0.29
    32:00        2.94        2.40        0.29
    33:00        2.94        2.40        0.29
    34:00        2.94        2.40        0.29
    35:00        2.94        2.40        0.29
    36:00        2.94        2.40        0.29
    37:00        2.94        2.40        0.29
    38:00        2.94        2.40        0.29
    39:00        2.94        2.40        0.29
    40:00        2.94        2.40        0.29
    41:00        2.94        2.40        0.29
    42:00        2.94        2.40        0.29
    43:00        2.94        2.40        0.29
    44:00        2.94        2.40        0.29
    45:00        2.94        2.40        0.29
    46:00        2.94        2.40        0.29
    47:00        2.94        2.40        0.29
    48:00        2.94        2.40        0.29
  
  <<< Node 11 >>>
  
  Time            CL2           S          Xb
  hr:min         MG/L        MG/L        UG/L
  -------  ----------  ----------  ----------
     0:00        0.00        0.00        0.00
     1:00        2.95        2.40        0.29
     2:00        2.95        2.40        0.29
     3:00        2.95        2.40        0.29
     4:00        2.95        2.40        0.29
     5:00        2.95        2.40        0.29
     6:00        2.95        2.40        0.29
     7:00        2.95        2.40        0.29
     8:00        2.95        2.40        0.29
     9:00        2.95        2.40        0.29
    10:00        2.95        2.40        0.29
    11:00        2.95        2.40        0.29
    12:00        2.95        2.40        0.29
    13:00        2.95        2.40        0.29
    14:00        2.95        2.40        0.29
    15:00        2.95        2.40        0.29
    16:00        2.95        2.40        0.29
    17:00        2.95        2.40        0.29
    18:00        2.95        2.40        0.29
    19:00        2.95        2.40        0.29
    20:00        2.95        2.40        0.29
    21:00        2.95        2.40        0.29
    22:00        2.95        2.40        0.29
    23:00        2.95        2.40        0.29
    24:00        2.95        2.40        0.29
    25:00        2.95        2.40        0.29
    26:00        2.95        2.40        0.29
    27:00        2.95        2.40        0.29
    28:00        2.95        2.40        0.29
    29:00        2.95        2.40        0.29
    30:00        2.95        2.40        0.29
    31:00        2.95        2.40        0.29
    32:00        2.95        2.40        0.29
    33:00        2.95        2.40        0.29
    34:00        2.95        2.40        0.29
    35:00        2.95        2.40        0.29
    36:00        2.95        2.40        0.29
    37:00        2.95        2.40        0.29
    38:00        2.95        2.40        0.29
    39:00        2.95        2.40        0.29
    40:00        2.95        2.40        0.29
    41:00        2.95        2.40        0.29
    42:00        2.95        2.40        0.29
    43:00        2.95        2.40        0.29
    44:00        2.95        2.40        0.29
    45:00        2.95        2.40        0.29
    46:00        2.95        2.40        0.29
    47:00        2.95        2.40        0.29
    48:00        2.95        2.40        0.29
  
  <<< Node 12 >>>
  
  Time            CL2           S          Xb
  hr:min         MG/L        MG/L        UG/L
  -------  ----------  ----------  ----------
     0:00        0.00        0.00        0.00
     1:00        2.95        2.40        0.29
     2:00        2.95        2.40        0.29
     3:00        2.95        2.40        0.29
     4:00        2.95        2.40        0.29
     5:00        2.95        2.40        0.29
     6:00        2.95        2.40        0.29
     7:00        2.95        2.40        0.29
     8:00        2.95        2.40        0.29
     9:00        2.95        2.40        0.29
    10:00        2.95        2.40        0.29
    11:00        2.95        2.40        0.29
    12:00        2.95        2.40        0.29
    13:00        2.95        2.40        0.29
    14:00        2.95        2.40        0.29
    15:00        2.95        2.40        0.29
    16:00        2.95        2.40        0.29
    17:00        2.95        2.40        0.29
    18:00        2.95        2.40        0.29
    19:00        2.95        2.40        0.29
    20:00        2.95        2.40        0.29
    21:00        2.95        2.40        0.29
    22:00        2.95        2.40        0.29
    23:00        2.95        2.40        0.29
    24:00        2.95        2.40        0.29
    25:00        2.95        2.40        0.29
    26:00        2.95        2.40        0.29
    27:00        2.95        2.40        0.29
    28:00        2.95        2.40        0.29
    29:00        2.95        2.40        0.29
    30:00        2.95        2.40        0.29
    31:00        2.95        2.40        0.29
    32:00        2.95        2.40        0.29
    33:00        2.95        2.40        0.29
    34:00        2.95        2.40        0.29
    35:00        2.95        2.40        0.29
    36:00        2.95        2.40        0.29
    37:00        2.95        2.40        0.29
    38:00        2.95        2.40        0.29
    39:00        2.95        2.40        0.29
    40:00        2.95        2.40        0.29
    41:00        2.95        2.40        0.29
    42:00        2.95        2.40        0.29
    43:00        2.95        2.40        0.29
    44:00        2.95        2.40        0.29
    45:00        2.95        2.40        0.29
    46:00        2.95        2.40        0.29
    47:00        2.95        2.40        0.29
    48:00        2.95        2.40        0.29
  
  <<< Node Source >>>
  
  Time            CL2           S          Xb
  hr:min         MG/L        MG/L        UG/L
  -------  ----------  ----------  ----------
     0:00        0.00        0.00        0.00
     1:00        3.00        2.40        0.30
     2:00        3.00        2.40        0.30
     3:00        3.00        2.40        0.30
     4:00        3.00        2.40        0.30
     5:00        3.00        2.40        0.30
     6:00        3.00        2.40        0.30
     7:00        3.00        2.40        0.30
     8:00        3.00        2.40        0.30
     9:00        3.00        2.40        0.30
    10:00        3.00        2.40        0.30
    11:00        3.00        2.40        0.30
    12:00        3.00        2.40        0.30
    13:00        3.00        2.40        0.30
    14:00        3.00        2.40        0.30
    15:00        3.00        2.40        0.30
    16:00        3.00        2.40        0.30
    17:00        3.00        2.40        0.30
    18:00        3.00        2.40        0.30
    19:00        3.00        2.40        0.30
    20:00        3.00        2.40        0.30
    21:00        3.00        2.40        0.30
    22:00        3.00        2.40        0.30
    23:00        3.00        2.40        0.30
    24:00        3.00        2.40        0.30
    25:00        3.00        2.40        0.30
    26:00        3.00        2.40        0.30
    27:00        3.00        2.40        0.30
    28:00        3.00        2.40        0.30
    29:00        3.00        2.40        0.30
    30:00        3.00        2.40        0.30
    31:00        3.00        2.40        0.30
    32:00        3.00        2.40        0.30
    33:00        3.00        2.40        0.30
    34:00        3.00        2.40        0.30
    35:00        3.00        2.40        0.30
    36:00        3.00        2.40        0.30
    37:00        3.00        2.40        0.30
    38:00        3.00        2.40        0.30
    39:00        3.00        2.40        0.30
    40:00        3.00        2.40        0.30
    41:00        3.00        2.40        0.30
    42:00        3.00        2.40        0.30
    43:00        3.00        2.40        0.30
    44:00        3.00        2.40        0.30
    45:00        3.00        2.40        0.30
    46:00        3.00        2.40        0.30
    47:00        3.00        2.40        0.30
    48:00        3.00        2.40        0.30
  
  Analysis ended Thu Apr 06 12:29:14 2017
